/*--------------------------------*- C++ -*----------------------------------*\
  =========                 |
  \\      /  F ield         | OpenFOAM: The Open Source CFD Toolbox
   \\    /   O peration     | Website:  https://openfoam.org
    \\  /    A nd           | Version:  11
     \\/     M anipulation  |
\*---------------------------------------------------------------------------*/
FoamFile
{
    format      ascii;
    class       dictionary;
    object      blockMeshDict;
}
// * * * * * * * * * * * * * * * * * * * * * * * * * * * * * * * * * * * * * //

convertToMeters 1;

vertices
(

    (0 0 0)     //0
    (1 0 0)     //1
    (1 1 0)     //2
    (0 1 0)     //3
    (0 0 1)     //4
    (1 0 1)     //5
    (1 1 1)     //6
    (0 1 1)     //7
        
);

blocks
(
    hex (0 1 2 3 4 5 6 7) (10 10 1) simpleGrading (1 1 1)
);

edges
(
);

boundary
(
    left
    {
        type symmetryPlane;
        faces
        (
            (0 4 7 3)
        );
    }
    right
    {
        type patch;
        faces
        (
            (1 2 6 5)
        );
    }
    down
    {
        type symmetryPlane;
        faces
        (
            (0 3 2 1)
        );
    }
    up
    {
        type patch;
        faces
        (
            (4 5 6 7)
        );
    }

    frontAndBack
    {
        type empty;
        faces
        (
        );
    }
);


// ************************************************************************* //
